 ****** HSPICE -- J-2014.09-SP2-2 64-BIT (Apr 17 2015) win64 ******             
  Copyright (C) 2014 Synopsys, Inc. All Rights Reserved.                        
  Unpublished-rights reserved under US copyright laws.
  This program is protected by law and is subject to the
  terms and conditions of the license agreement from Synopsys.
  Use of this program is your acceptance to be bound by the
  license agreement. HSPICE is the trademark of Synopsys, Inc.
  Input File: and.sp                                                            
  Command line options: -i and.sp -o and.lis
  lic:  
  lic: FLEXlm: v10.9.8 
  lic: USER:   DELL                 HOSTNAME: DESKTOP-7ITPLTQ 
  lic: HOSTID: "c03eba3298b7 18473d25e973 1a473d25e973 2a473d25e973" PID:      1
 2164 
  lic: Using FLEXlm license file: 
  lic: 27000@DESKTOP-7ITPLTQ 
  lic: Checkout 1 hspice 
  lic: License/Maintenance for hspice will expire on 30-dec-2030/2020.12 
  lic: 1(in_use)/99(total) FLOATING license(s) on SERVER 27000@DESKTOP-7ITPLTQ 
  lic:   
 Init: read install configuration file: C:\synopsys\Hspice_J-2014.09-SP2-2\meta.cfg
1****** HSPICE -- J-2014.09-SP2-2 64-BIT (Apr 17 2015) win64 ******             
 ******  
 * ternary and gate using gnrfet technology

 ****** circuit name directory
 circuit number to circuit name directory
   number circuitname                     definition         multiplier
        0 main circuit
  **info** (and.sp:19) DC voltage reset to initial transient source value              in source        0:vin1                new dc=  0.0000D+00

 **warning** associated with encrypted  block(s) were suppressed due to encrypted content.

  
      
  **warning** PIVOT option setting is simplified, pivot = 13 is obsolete,
              automatically switch to pivot = 1.
 *****************************************************************
 ******  option summary
 ******
 runlvl  = 3         bypass  = 2         
  Opening plot unit= 79
 file=and.pa0

1****** HSPICE -- J-2014.09-SP2-2 64-BIT (Apr 17 2015) win64 ******             
 ******  
 * ternary and gate using gnrfet technology

 ****** operating point information tnom=  25.000 temp=  25.000 ******
 ****** operating point status is all       simulation time is   0.000e+00
    node    =voltage      node    =voltage      node    =voltage

 +0:a       = 0.000e+00 0:b       = 0.000e+00 0:op      = 4.497e-01
 +0:out1    = 1.264e-09 0:out2    = 9.000e-01


 **** voltage sources

 subckt                                   
 element  0:vds      0:vin1     0:vin2    
  volts    9.000e-01  0.000e+00  0.000e+00
  current -1.336e-09  0.000e+00  0.000e+00
  power    1.203e-09  0.000e+00  0.000e+00

     total voltage source power dissipation=  1.203e-09       watts


 ******  
 * ternary and gate using gnrfet technology

 ****** transient analysis tnom=  25.000 temp=  25.000 ******
 avgpower= 4.3898e-07  from= 1.0000e-09     to= 9.0000e-08
 peakpower= 2.8461e-06    at= 6.4799e-08
             from= 1.0000e-09    to= 9.0000e-08

a


 legend:

  a: v(a)
  b: v(b)
  c: v(op)

      time       v(a)
 (abc     )     0.000e+00     2.000e-01     4.000e-01     6.000e-01    8.000e-01
                      +             +             +             +             + 
  0.000e+00  0.00e+00-2------+------+------+------+--c---+------+------+------+-
  2.000e-10  2.00e-03 2      +      +      +      +  c   +      +      +      + 
  4.000e-10  4.00e-03 2      +      +      +      +  c   +      +      +      + 
  6.000e-10  6.00e-03 2      +      +      +      +  c   +      +      +      + 
  8.000e-10  8.00e-03 +2     +      +      +      +  c   +      +      +      + 
  1.000e-09  1.00e-02 +2     +      +      +      +  c   +      +      +      + 
  1.200e-09  1.20e-02 +2     +      +      +      +  c   +      +      +      + 
  1.400e-09  1.40e-02 +2     +      +      +      +  c   +      +      +      + 
  1.600e-09  1.60e-02 +2     +      +      +      +  c   +      +      +      + 
  1.800e-09  1.80e-02 +2     +      +      +      +  c   +      +      +      + 
  2.000e-09  2.00e-02-+2-----+------+------+------+--c---+------+------+------+-
  2.200e-09  2.20e-02 + 2    +      +      +      +  c   +      +      +      + 
  2.400e-09  2.40e-02 + 2    +      +      +      +  c   +      +      +      + 
  2.600e-09  2.60e-02 + 2    +      +      +      +  c   +      +      +      + 
  2.800e-09  2.80e-02 + 2    +      +      +      +  c   +      +      +      + 
  3.000e-09  3.00e-02 + 2    +      +      +      +  c   +      +      +      + 
  3.200e-09  3.20e-02 + 2    +      +      +      +  c   +      +      +      + 
  3.400e-09  3.40e-02 + 2    +      +      +      +  c   +      +      +      + 
  3.600e-09  3.60e-02 +  2   +      +      +      +  c   +      +      +      + 
  3.800e-09  3.80e-02 +  2   +      +      +      +  c   +      +      +      + 
  4.000e-09  4.00e-02-+--2---+------+------+------+-c----+------+------+------+-
  4.200e-09  4.20e-02 +  2   +      +      +      + c    +      +      +      + 
  4.400e-09  4.40e-02 +  2   +      +      +      + c    +      +      +      + 
  4.600e-09  4.60e-02 +  2   +      +      +      + c    +      +      +      + 
  4.800e-09  4.80e-02 +  2   +      +      +      + c    +      +      +      + 
  5.000e-09  5.00e-02 +   2  +      +      +      + c    +      +      +      + 
  5.200e-09  5.20e-02 +   2  +      +      +      + c    +      +      +      + 
  5.400e-09  5.40e-02 +   2  +      +      +      + c    +      +      +      + 
  5.600e-09  5.60e-02 +   2  +      +      +      + c    +      +      +      + 
  5.800e-09  5.80e-02 +   2  +      +      +      + c    +      +      +      + 
  6.000e-09  6.00e-02-+---2--+------+------+------+-c----+------+------+------+-
  6.200e-09  6.20e-02 +   2  +      +      +      + c    +      +      +      + 
  6.400e-09  6.40e-02 +   2  +      +      +      + c    +      +      +      + 
  6.600e-09  6.60e-02 +    2 +      +      +      + c    +      +      +      + 
  6.800e-09  6.80e-02 +    2 +      +      +      + c    +      +      +      + 
  7.000e-09  7.00e-02 +    2 +      +      +      + c    +      +      +      + 
  7.200e-09  7.20e-02 +    2 +      +      +      + c    +      +      +      + 
  7.400e-09  7.40e-02 +    2 +      +      +      + c    +      +      +      + 
  7.600e-09  7.60e-02 +    2 +      +      +      + c    +      +      +      + 
  7.800e-09  7.80e-02 +    2 +      +      +      + c    +      +      +      + 
  8.000e-09  8.00e-02-+-----2+------+------+------+-c----+------+------+------+-
  8.200e-09  8.20e-02 +     2+      +      +      + c    +      +      +      + 
  8.400e-09  8.40e-02 +     2+      +      +      + c    +      +      +      + 
  8.600e-09  8.60e-02 +     2+      +      +      + c    +      +      +      + 
  8.800e-09  8.80e-02 +     2+      +      +      + c    +      +      +      + 
  9.000e-09  9.00e-02 +     2+      +      +      + c    +      +      +      + 
  9.200e-09  9.20e-02 +     2+      +      +      + c    +      +      +      + 
  9.400e-09  9.40e-02 +      2      +      +      + c    +      +      +      + 
  9.600e-09  9.60e-02 +      2      +      +      + c    +      +      +      + 
  9.800e-09  9.80e-02 +      2      +      +      + c    +      +      +      + 
  1.000e-08  1.00e-01-+------2------+------+------+--c---+------+------+------+-
  1.020e-08  1.02e-01 +      2      +      +      +  c   +      +      +      + 
  1.040e-08  1.04e-01 +      2      +      +      +  c   +      +      +      + 
  1.060e-08  1.06e-01 +      2      +      +      +  c   +      +      +      + 
  1.080e-08  1.08e-01 +      +2     +      +      +  c   +      +      +      + 
  1.100e-08  1.10e-01 +      +2     +      +      +  c   +      +      +      + 
  1.120e-08  1.12e-01 +      +2     +      +      +  c   +      +      +      + 
  1.140e-08  1.14e-01 +      +2     +      +      +  c   +      +      +      + 
  1.160e-08  1.16e-01 +      +2     +      +      +  c   +      +      +      + 
  1.180e-08  1.18e-01 +      +2     +      +      +  c   +      +      +      + 
  1.200e-08  1.20e-01-+------+2-----+------+------+--c---+------+------+------+-
  1.220e-08  1.22e-01 +      + 2    +      +      +  c   +      +      +      + 
  1.240e-08  1.24e-01 +      + 2    +      +      +  c   +      +      +      + 
  1.260e-08  1.26e-01 +      + 2    +      +      +  c   +      +      +      + 
  1.280e-08  1.28e-01 +      + 2    +      +      +  c   +      +      +      + 
  1.300e-08  1.30e-01 +      + 2    +      +      +  c   +      +      +      + 
  1.320e-08  1.32e-01 +      + 2    +      +      +  c   +      +      +      + 
  1.340e-08  1.34e-01 +      + 2    +      +      +  c   +      +      +      + 
  1.360e-08  1.36e-01 +      +  2   +      +      +  c   +      +      +      + 
  1.380e-08  1.38e-01 +      +  2   +      +      +  c   +      +      +      + 
  1.400e-08  1.40e-01-+------+--2---+------+------+--c---+------+------+------+-
  1.420e-08  1.42e-01 +      +  2   +      +      +  c   +      +      +      + 
  1.440e-08  1.44e-01 +      +  2   +      +      +  c   +      +      +      + 
  1.460e-08  1.46e-01 +      +  2   +      +      +  c   +      +      +      + 
  1.480e-08  1.48e-01 +      +  2   +      +      +  c   +      +      +      + 
  1.500e-08  1.50e-01 +      +   2  +      +      +  c   +      +      +      + 
  1.520e-08  1.52e-01 +      +   2  +      +      +  c   +      +      +      + 
  1.540e-08  1.54e-01 +      +   2  +      +      +  c   +      +      +      + 
  1.560e-08  1.56e-01 +      +   2  +      +      +  c   +      +      +      + 
  1.580e-08  1.58e-01 +      +   2  +      +      +  c   +      +      +      + 
  1.600e-08  1.60e-01-+------+---2--+------+------+--c---+------+------+------+-
  1.620e-08  1.62e-01 +      +   2  +      +      +  c   +      +      +      + 
  1.640e-08  1.64e-01 +      +   2  +      +      +  c   +      +      +      + 
  1.660e-08  1.66e-01 +      +    2 +      +      +  c   +      +      +      + 
  1.680e-08  1.68e-01 +      +    2 +      +      +  c   +      +      +      + 
  1.700e-08  1.70e-01 +      +    2 +      +      +  c   +      +      +      + 
  1.720e-08  1.72e-01 +      +    2 +      +      +  c   +      +      +      + 
  1.740e-08  1.74e-01 +      +    2 +      +      +  c   +      +      +      + 
  1.760e-08  1.76e-01 +      +    2 +      +      +  c   +      +      +      + 
  1.780e-08  1.78e-01 +      +    2 +      +      +  c   +      +      +      + 
  1.800e-08  1.80e-01-+------+-----2+------+------+--c---+------+------+------+-
  1.820e-08  1.82e-01 +      +     2+      +      +  c   +      +      +      + 
  1.840e-08  1.84e-01 +      +     2+      +      +  c   +      +      +      + 
  1.860e-08  1.86e-01 +      +     2+      +      +  c   +      +      +      + 
  1.880e-08  1.88e-01 +      +     2+      +      +  c   +      +      +      + 
  1.900e-08  1.90e-01 +      +     2+      +      +  c   +      +      +      + 
  1.920e-08  1.92e-01 +      +     2+      +      +  c   +      +      +      + 
  1.940e-08  1.94e-01 +      +      2      +      +  c   +      +      +      + 
  1.960e-08  1.96e-01 +      +      2      +      +  c   +      +      +      + 
  1.980e-08  1.98e-01 +      +      2      +      +  c   +      +      +      + 
  2.000e-08  2.00e-01-+------+------2------+------+--c---+------+------+------+-
  2.020e-08  2.02e-01 +      +      2      +      +  c   +      +      +      + 
  2.040e-08  2.04e-01 +      +      2      +      +  c   +      +      +      + 
  2.060e-08  2.06e-01 +      +      2      +      +  c   +      +      +      + 
  2.080e-08  2.08e-01 +      +      +2     +      +  c   +      +      +      + 
  2.100e-08  2.10e-01 +      +      +2     +      +  c   +      +      +      + 
  2.120e-08  2.12e-01 +      +      +2     +      +  c   +      +      +      + 
  2.140e-08  2.14e-01 +      +      +2     +      +  c   +      +      +      + 
  2.160e-08  2.16e-01 +      +      +2     +      +  c   +      +      +      + 
  2.180e-08  2.18e-01 +      +      +2     +      +  c   +      +      +      + 
  2.200e-08  2.20e-01-+------+------+2-----+------+--c---+------+------+------+-
  2.220e-08  2.22e-01 +      +      + 2    +      +  c   +      +      +      + 
  2.240e-08  2.24e-01 +      +      + 2    +      +  c   +      +      +      + 
  2.260e-08  2.26e-01 +      +      + 2    +      +  c   +      +      +      + 
  2.280e-08  2.28e-01 +      +      + 2    +      +  c   +      +      +      + 
  2.300e-08  2.30e-01 +      +      + 2    +      +  c   +      +      +      + 
  2.320e-08  2.32e-01 +      +      + 2    +      +  c   +      +      +      + 
  2.340e-08  2.34e-01 +      +      + 2    +      +  c   +      +      +      + 
  2.360e-08  2.36e-01 +      +      +  2   +      +  c   +      +      +      + 
  2.380e-08  2.38e-01 +      +      +  2   +      +  c   +      +      +      + 
  2.400e-08  2.40e-01-+------+------+--2---+------+--c---+------+------+------+-
  2.420e-08  2.42e-01 +      +      +  2   +      +  c   +      +      +      + 
  2.440e-08  2.44e-01 +      +      +  2   +      +  c   +      +      +      + 
  2.460e-08  2.46e-01 +      +      +  2   +      +  c   +      +      +      + 
  2.480e-08  2.48e-01 +      +      +  2   +      +  c   +      +      +      + 
  2.500e-08  2.50e-01 +      +      +   2  +      +  c   +      +      +      + 
  2.520e-08  2.52e-01 +      +      +   2  +      +  c   +      +      +      + 
  2.540e-08  2.54e-01 +      +      +   2  +      +  c   +      +      +      + 
  2.560e-08  2.56e-01 +      +      +   2  +      +  c   +      +      +      + 
  2.580e-08  2.58e-01 +      +      +   2  +      +  c   +      +      +      + 
  2.600e-08  2.60e-01-+------+------+---2--+------+--c---+------+------+------+-
  2.620e-08  2.62e-01 +      +      +   2  +      +  c   +      +      +      + 
  2.640e-08  2.64e-01 +      +      +   2  +      +  c   +      +      +      + 
  2.660e-08  2.66e-01 +      +      +    2 +      +  c   +      +      +      + 
  2.680e-08  2.68e-01 +      +      +    2 +      +  c   +      +      +      + 
  2.700e-08  2.70e-01 +      +      +    2 +      +  c   +      +      +      + 
  2.720e-08  2.72e-01 +      +      +    2 +      +  c   +      +      +      + 
  2.740e-08  2.74e-01 +      +      +    2 +      +  c   +      +      +      + 
  2.760e-08  2.76e-01 +      +      +    2 +      +  c   +      +      +      + 
  2.780e-08  2.78e-01 +      +      +    2 +      +  c   +      +      +      + 
  2.800e-08  2.80e-01-+------+------+-----2+------+--c---+------+------+------+-
  2.820e-08  2.82e-01 +      +      +     2+      +  c   +      +      +      + 
  2.840e-08  2.84e-01 +      +      +     2+      +  c   +      +      +      + 
  2.860e-08  2.86e-01 +      +      +     2+      +  c   +      +      +      + 
  2.880e-08  2.88e-01 +      +      +     2+      +  c   +      +      +      + 
  2.900e-08  2.90e-01 +      +      +     2+      +  c   +      +      +      + 
  2.920e-08  2.92e-01 +      +      +     2+      +  c   +      +      +      + 
  2.940e-08  2.94e-01 +      +      +      2      +  c   +      +      +      + 
  2.960e-08  2.96e-01 +      +      +      2      +  c   +      +      +      + 
  2.980e-08  2.98e-01 +      +      +      2      +  c   +      +      +      + 
  3.000e-08  3.00e-01-+------+------+------2------+--c---+------+------+------+-
  3.020e-08  3.02e-01 +      +      +      2      +  c   +      +      +      + 
  3.040e-08  3.04e-01 +      +      +      2      +  c   +      +      +      + 
  3.060e-08  3.06e-01 +      +      +      2      +  c   +      +      +      + 
  3.080e-08  3.08e-01 +      +      +      +2     +  c   +      +      +      + 
  3.100e-08  3.10e-01 +      +      +      +2     +  c   +      +      +      + 
  3.120e-08  3.12e-01 +      +      +      +2     +  c   +      +      +      + 
  3.140e-08  3.14e-01 +      +      +      +2     +  c   +      +      +      + 
  3.160e-08  3.16e-01 +      +      +      +2     +  c   +      +      +      + 
  3.180e-08  3.18e-01 +      +      +      +2     +  c   +      +      +      + 
  3.200e-08  3.20e-01-+------+------+------+2-----+--c---+------+------+------+-
  3.220e-08  3.22e-01 +      +      +      + 2    +  c   +      +      +      + 
  3.240e-08  3.24e-01 +      +      +      + 2    +  c   +      +      +      + 
  3.260e-08  3.26e-01 +      +      +      + 2    +  c   +      +      +      + 
  3.280e-08  3.28e-01 +      +      +      + 2    +  c   +      +      +      + 
  3.300e-08  3.30e-01 +      +      +      + 2    +  c   +      +      +      + 
  3.320e-08  3.32e-01 +      +      +      + 2    +  c   +      +      +      + 
  3.340e-08  3.34e-01 +      +      +      + 2    +  c   +      +      +      + 
  3.360e-08  3.36e-01 +      +      +      +  2   +  c   +      +      +      + 
  3.380e-08  3.38e-01 +      +      +      +  2   +  c   +      +      +      + 
  3.400e-08  3.40e-01-+------+------+------+--2---+--c---+------+------+------+-
  3.420e-08  3.42e-01 +      +      +      +  2   +  c   +      +      +      + 
  3.440e-08  3.44e-01 +      +      +      +  2   +  c   +      +      +      + 
  3.460e-08  3.46e-01 +      +      +      +  2   +  c   +      +      +      + 
  3.480e-08  3.48e-01 +      +      +      +  2   +  c   +      +      +      + 
  3.500e-08  3.50e-01 +      +      +      +   2  +  c   +      +      +      + 
  3.520e-08  3.52e-01 +      +      +      +   2  +  c   +      +      +      + 
  3.540e-08  3.54e-01 +      +      +      +   2  +  c   +      +      +      + 
  3.560e-08  3.56e-01 +      +      +      +   2  +  c   +      +      +      + 
  3.580e-08  3.58e-01 +      +      +      +   2  +  c   +      +      +      + 
  3.600e-08  3.60e-01-+------+------+------+---2--+--c---+------+------+------+-
  3.620e-08  3.62e-01 +      +      +      +   2  +  c   +      +      +      + 
  3.640e-08  3.64e-01 +      +      +      +   2  +  c   +      +      +      + 
  3.660e-08  3.66e-01 +      +      +      +    2 +  c   +      +      +      + 
  3.680e-08  3.68e-01 +      +      +      +    2 +  c   +      +      +      + 
  3.700e-08  3.70e-01 +      +      +      +    2 +  c   +      +      +      + 
  3.720e-08  3.72e-01 +      +      +      +    2 +  c   +      +      +      + 
  3.740e-08  3.74e-01 +      +      +      +    2 +  c   +      +      +      + 
  3.760e-08  3.76e-01 +      +      +      +    2 +  c   +      +      +      + 
  3.780e-08  3.78e-01 +      +      +      +    2 +  c   +      +      +      + 
  3.800e-08  3.80e-01-+------+------+------+-----2+--c---+------+------+------+-
  3.820e-08  3.82e-01 +      +      +      +     2+  c   +      +      +      + 
  3.840e-08  3.84e-01 +      +      +      +     2+  c   +      +      +      + 
  3.860e-08  3.86e-01 +      +      +      +     2+  c   +      +      +      + 
  3.880e-08  3.88e-01 +      +      +      +     2+  c   +      +      +      + 
  3.900e-08  3.90e-01 +      +      +      +     2+  c   +      +      +      + 
  3.920e-08  3.92e-01 +      +      +      +     2+  c   +      +      +      + 
  3.940e-08  3.94e-01 +      +      +      +      2  c   +      +      +      + 
  3.960e-08  3.96e-01 +      +      +      +      2  c   +      +      +      + 
  3.980e-08  3.98e-01 +      +      +      +      2  c   +      +      +      + 
  4.000e-08  4.00e-01-+------+------+------+------2--c---+------+------+------+-
  4.020e-08  4.02e-01 +      +      +      +      2  c   +      +      +      + 
  4.040e-08  4.04e-01 +      +      +      +      2  c   +      +      +      + 
  4.060e-08  4.06e-01 +      +      +      +      2  c   +      +      +      + 
  4.080e-08  4.08e-01 +      +      +      +      +2 c   +      +      +      + 
  4.100e-08  4.10e-01 +      +      +      +      +2 c   +      +      +      + 
  4.120e-08  4.12e-01 +      +      +      +      +2 c   +      +      +      + 
  4.140e-08  4.14e-01 +      +      +      +      +2 c   +      +      +      + 
  4.160e-08  4.16e-01 +      +      +      +      +2 c   +      +      +      + 
  4.180e-08  4.18e-01 +      +      +      +      +2 c   +      +      +      + 
  4.200e-08  4.20e-01-+------+------+------+------+2-c---+------+------+------+-
  4.220e-08  4.22e-01 +      +      +      +      + 2c   +      +      +      + 
  4.240e-08  4.24e-01 +      +      +      +      + 2c   +      +      +      + 
  4.260e-08  4.26e-01 +      +      +      +      + 2c   +      +      +      + 
  4.280e-08  4.28e-01 +      +      +      +      + 2c   +      +      +      + 
  4.300e-08  4.30e-01 +      +      +      +      + 2c   +      +      +      + 
  4.320e-08  4.32e-01 +      +      +      +      + 2c   +      +      +      + 
  4.340e-08  4.34e-01 +      +      +      +      + 2c   +      +      +      + 
  4.360e-08  4.36e-01 +      +      +      +      +  3   +      +      +      + 
  4.380e-08  4.38e-01 +      +      +      +      +  3   +      +      +      + 
  4.400e-08  4.40e-01-+------+------+------+------+--3---+------+------+------+-
  4.420e-08  4.42e-01 +      +      +      +      +  3   +      +      +      + 
  4.440e-08  4.44e-01 +      +      +      +      +  3   +      +      +      + 
  4.460e-08  4.46e-01 +      +      +      +      +  3   +      +      +      + 
  4.480e-08  4.48e-01 +      +      +      +      +  3   +      +      +      + 
  4.500e-08  4.50e-01 +      +      +      +      +  c2  +      +      +      + 
  4.520e-08  4.52e-01 +      +      +      +      +  c2  +      +      +      + 
  4.540e-08  4.54e-01 +      +      +      +      +  c2  +      +      +      + 
  4.560e-08  4.56e-01 +      +      +      +      +  c2  +      +      +      + 
  4.580e-08  4.58e-01 +      +      +      +      +  c2  +      +      +      + 
  4.600e-08  4.60e-01-+------+------+------+------+--c2--+------+------+------+-
  4.620e-08  4.62e-01 +      +      +      +      +  c2  +      +      +      + 
  4.640e-08  4.64e-01 +      +      +      +      +  c2  +      +      +      + 
  4.660e-08  4.66e-01 +      +      +      +      +  c 2 +      +      +      + 
  4.680e-08  4.68e-01 +      +      +      +      +  c 2 +      +      +      + 
  4.700e-08  4.70e-01 +      +      +      +      +  c 2 +      +      +      + 
  4.720e-08  4.72e-01 +      +      +      +      +  c 2 +      +      +      + 
  4.740e-08  4.74e-01 +      +      +      +      +  c 2 +      +      +      + 
  4.760e-08  4.76e-01 +      +      +      +      +  c 2 +      +      +      + 
  4.780e-08  4.78e-01 +      +      +      +      +  c 2 +      +      +      + 
  4.800e-08  4.80e-01-+------+------+------+------+--c--2+------+------+------+-
  4.820e-08  4.82e-01 +      +      +      +      +  c  2+      +      +      + 
  4.840e-08  4.84e-01 +      +      +      +      +  c  2+      +      +      + 
  4.860e-08  4.86e-01 +      +      +      +      +  c  2+      +      +      + 
  4.880e-08  4.88e-01 +      +      +      +      +  c  2+      +      +      + 
  4.900e-08  4.90e-01 +      +      +      +      +  c  2+      +      +      + 
  4.920e-08  4.92e-01 +      +      +      +      +  c  2+      +      +      + 
  4.940e-08  4.94e-01 +      +      +      +      +  c   2      +      +      + 
  4.960e-08  4.96e-01 +      +      +      +      +  c   2      +      +      + 
  4.980e-08  4.98e-01 +      +      +      +      +  c   2      +      +      + 
  5.000e-08  5.00e-01-+------+------+------+------+--c---2------+------+------+-
  5.020e-08  5.02e-01 +      +      +      +      +  c   2      +      +      + 
  5.040e-08  5.04e-01 +      +      +      +      +  c   2      +      +      + 
  5.060e-08  5.06e-01 +      +      +      +      +  c   2      +      +      + 
  5.080e-08  5.08e-01 +      +      +      +      +  c   +2     +      +      + 
  5.100e-08  5.10e-01 +      +      +      +      +  c   +2     +      +      + 
  5.120e-08  5.12e-01 +      +      +      +      +  c   +2     +      +      + 
  5.140e-08  5.14e-01 +      +      +      +      +  c   +2     +      +      + 
  5.160e-08  5.16e-01 +      +      +      +      +  c   +2     +      +      + 
  5.180e-08  5.18e-01 +      +      +      +      +  c   +2     +      +      + 
  5.200e-08  5.20e-01-+------+------+------+------+--c---+2-----+------+------+-
  5.220e-08  5.22e-01 +      +      +      +      +  c   + 2    +      +      + 
  5.240e-08  5.24e-01 +      +      +      +      +  c   + 2    +      +      + 
  5.260e-08  5.26e-01 +      +      +      +      +  c   + 2    +      +      + 
  5.280e-08  5.28e-01 +      +      +      +      +  c   + 2    +      +      + 
  5.300e-08  5.30e-01 +      +      +      +      +  c   + 2    +      +      + 
  5.320e-08  5.32e-01 +      +      +      +      +  c   + 2    +      +      + 
  5.340e-08  5.34e-01 +      +      +      +      +  c   + 2    +      +      + 
  5.360e-08  5.36e-01 +      +      +      +      +  c   +  2   +      +      + 
  5.380e-08  5.38e-01 +      +      +      +      +  c   +  2   +      +      + 
  5.400e-08  5.40e-01-+------+------+------+------+--c---+--2---+------+------+-
  5.420e-08  5.42e-01 +      +      +      +      +  c   +  2   +      +      + 
  5.440e-08  5.44e-01 +      +      +      +      +  c   +  2   +      +      + 
  5.460e-08  5.46e-01 +      +      +      +      +  c   +  2   +      +      + 
  5.480e-08  5.48e-01 +      +      +      +      +  c   +  2   +      +      + 
  5.500e-08  5.50e-01 +      +      +      +      +  c   +   2  +      +      + 
  5.520e-08  5.52e-01 +      +      +      +      +  c   +   2  +      +      + 
  5.540e-08  5.54e-01 +      +      +      +      +  c   +   2  +      +      + 
  5.560e-08  5.56e-01 +      +      +      +      +  c   +   2  +      +      + 
  5.580e-08  5.58e-01 +      +      +      +      +  c   +   2  +      +      + 
  5.600e-08  5.60e-01-+------+------+------+------+--c---+---2--+------+------+-
  5.620e-08  5.62e-01 +      +      +      +      +  c   +   2  +      +      + 
  5.640e-08  5.64e-01 +      +      +      +      +  c   +   2  +      +      + 
  5.660e-08  5.66e-01 +      +      +      +      +  c   +    2 +      +      + 
  5.680e-08  5.68e-01 +      +      +      +      +  c   +    2 +      +      + 
  5.700e-08  5.70e-01 +      +      +      +      +  c   +    2 +      +      + 
  5.720e-08  5.72e-01 +      +      +      +      +  c   +    2 +      +      + 
  5.740e-08  5.74e-01 +      +      +      +      +  c   +    2 +      +      + 
  5.760e-08  5.76e-01 +      +      +      +      +  c   +    2 +      +      + 
  5.780e-08  5.78e-01 +      +      +      +      +  c   +    2 +      +      + 
  5.800e-08  5.80e-01-+------+------+------+------+--c---+-----2+------+------+-
  5.820e-08  5.82e-01 +      +      +      +      +  c   +     2+      +      + 
  5.840e-08  5.84e-01 +      +      +      +      +  c   +     2+      +      + 
  5.860e-08  5.86e-01 +      +      +      +      +  c   +     2+      +      + 
  5.880e-08  5.88e-01 +      +      +      +      +  c   +     2+      +      + 
  5.900e-08  5.90e-01 +      +      +      +      +  c   +     2+      +      + 
  5.920e-08  5.92e-01 +      +      +      +      +  c   +     2+      +      + 
  5.940e-08  5.94e-01 +      +      +      +      +  c   +      2      +      + 
  5.960e-08  5.96e-01 +      +      +      +      +  c   +      2      +      + 
  5.980e-08  5.98e-01 +      +      +      +      +  c   +      2      +      + 
  6.000e-08  6.00e-01-+------+------+------+------+--c---+------2------+------+-
  6.020e-08  5.96e-01 +      +      +      +      +  c   +      2      +      + 
  6.040e-08  5.92e-01 +      +      +      +      +  c   +     2+      +      + 
  6.060e-08  5.88e-01 +      +      +      +      +  c   +     2+      +      + 
  6.080e-08  5.84e-01 +      +      +      +      +  c   +     2+      +      + 
  6.100e-08  5.80e-01 +      +      +      +      +  c   +     2+      +      + 
  6.120e-08  5.76e-01 +      +      +      +      +  c   +    2 +      +      + 
  6.140e-08  5.72e-01 +      +      +      +      +  c   +    2 +      +      + 
  6.160e-08  5.68e-01 +      +      +      +      +  c   +    2 +      +      + 
  6.180e-08  5.64e-01 +      +      +      +      +  c   +   2  +      +      + 
  6.200e-08  5.60e-01-+------+------+------+------+--c---+---2--+------+------+-
  6.220e-08  5.56e-01 +      +      +      +      +  c   +   2  +      +      + 
  6.240e-08  5.52e-01 +      +      +      +      +  c   +   2  +      +      + 
  6.260e-08  5.48e-01 +      +      +      +      +  c   +  2   +      +      + 
  6.280e-08  5.44e-01 +      +      +      +      +  c   +  2   +      +      + 
  6.300e-08  5.40e-01 +      +      +      +      +  c   +  2   +      +      + 
  6.320e-08  5.36e-01 +      +      +      +      +  c   +  2   +      +      + 
  6.340e-08  5.32e-01 +      +      +      +      +  c   + 2    +      +      + 
  6.360e-08  5.28e-01 +      +      +      +      +  c   + 2    +      +      + 
  6.380e-08  5.24e-01 +      +      +      +      +  c   + 2    +      +      + 
  6.400e-08  5.20e-01-+------+------+------+------+--c---+2-----+------+------+-
  6.420e-08  5.16e-01 +      +      +      +      +  c   +2     +      +      + 
  6.440e-08  5.12e-01 +      +      +      +      +  c   +2     +      +      + 
  6.460e-08  5.08e-01 +      +      +      +      +  c   +2     +      +      + 
  6.480e-08  5.04e-01 +      +      +      +      +  c   2      +      +      + 
  6.500e-08  5.00e-01 +      +      +      +      +  c   2      +      +      + 
  6.520e-08  4.96e-01 +      +      +      +      +  c   2      +      +      + 
  6.540e-08  4.92e-01 +      +      +      +      +  c  2+      +      +      + 
  6.560e-08  4.88e-01 +      +      +      +      +  c  2+      +      +      + 
  6.580e-08  4.84e-01 +      +      +      +      +  c  2+      +      +      + 
  6.600e-08  4.80e-01-+------+------+------+------+--c--2+------+------+------+-
  6.620e-08  4.76e-01 +      +      +      +      +  c 2 +      +      +      + 
  6.640e-08  4.72e-01 +      +      +      +      +  c 2 +      +      +      + 
  6.660e-08  4.68e-01 +      +      +      +      +  c 2 +      +      +      + 
  6.680e-08  4.64e-01 +      +      +      +      +  c2  +      +      +      + 
  6.700e-08  4.60e-01 +      +      +      +      +  c2  +      +      +      + 
  6.720e-08  4.56e-01 +      +      +      +      +  c2  +      +      +      + 
  6.740e-08  4.52e-01 +      +      +      +      +  c2  +      +      +      + 
  6.760e-08  4.48e-01 +      +      +      +      +  3   +      +      +      + 
  6.780e-08  4.44e-01 +      +      +      +      +  3   +      +      +      + 
  6.800e-08  4.40e-01-+------+------+------+------+--3---+------+------+------+-
  6.820e-08  4.36e-01 +      +      +      +      +  3   +      +      +      + 
  6.840e-08  4.32e-01 +      +      +      +      + 2c   +      +      +      + 
  6.860e-08  4.28e-01 +      +      +      +      + 2c   +      +      +      + 
  6.880e-08  4.24e-01 +      +      +      +      + 2c   +      +      +      + 
  6.900e-08  4.20e-01 +      +      +      +      +2 c   +      +      +      + 
  6.920e-08  4.16e-01 +      +      +      +      +2 c   +      +      +      + 
  6.940e-08  4.12e-01 +      +      +      +      +2 c   +      +      +      + 
  6.960e-08  4.08e-01 +      +      +      +      +2 c   +      +      +      + 
  6.980e-08  4.04e-01 +      +      +      +      2  c   +      +      +      + 
  7.000e-08  4.00e-01-+------+------+------+------2--c---+------+------+------+-
  7.020e-08  3.96e-01 +      +      +      +      2  c   +      +      +      + 
  7.040e-08  3.92e-01 +      +      +      +     2+  c   +      +      +      + 
  7.060e-08  3.88e-01 +      +      +      +     2+  c   +      +      +      + 
  7.080e-08  3.84e-01 +      +      +      +     2+  c   +      +      +      + 
  7.100e-08  3.80e-01 +      +      +      +     2+  c   +      +      +      + 
  7.120e-08  3.76e-01 +      +      +      +    2 +  c   +      +      +      + 
  7.140e-08  3.72e-01 +      +      +      +    2 +  c   +      +      +      + 
  7.160e-08  3.68e-01 +      +      +      +    2 +  c   +      +      +      + 
  7.180e-08  3.64e-01 +      +      +      +   2  +  c   +      +      +      + 
  7.200e-08  3.60e-01-+------+------+------+---2--+--c---+------+------+------+-
  7.220e-08  3.56e-01 +      +      +      +   2  +  c   +      +      +      + 
  7.240e-08  3.52e-01 +      +      +      +   2  +  c   +      +      +      + 
  7.260e-08  3.48e-01 +      +      +      +  2   +  c   +      +      +      + 
  7.280e-08  3.44e-01 +      +      +      +  2   +  c   +      +      +      + 
  7.300e-08  3.40e-01 +      +      +      +  2   +  c   +      +      +      + 
  7.320e-08  3.36e-01 +      +      +      +  2   +  c   +      +      +      + 
  7.340e-08  3.32e-01 +      +      +      + 2    +  c   +      +      +      + 
  7.360e-08  3.28e-01 +      +      +      + 2    +  c   +      +      +      + 
  7.380e-08  3.24e-01 +      +      +      + 2    +  c   +      +      +      + 
  7.400e-08  3.20e-01-+------+------+------+2-----+--c---+------+------+------+-
  7.420e-08  3.16e-01 +      +      +      +2     +  c   +      +      +      + 
  7.440e-08  3.12e-01 +      +      +      +2     +  c   +      +      +      + 
  7.460e-08  3.08e-01 +      +      +      +2     +  c   +      +      +      + 
  7.480e-08  3.04e-01 +      +      +      2      +  c   +      +      +      + 
  7.500e-08  3.00e-01 +      +      +      2      +  c   +      +      +      + 
  7.520e-08  2.96e-01 +      +      +      2      +  c   +      +      +      + 
  7.540e-08  2.92e-01 +      +      +     2+      +  c   +      +      +      + 
  7.560e-08  2.88e-01 +      +      +     2+      +  c   +      +      +      + 
  7.580e-08  2.84e-01 +      +      +     2+      +  c   +      +      +      + 
  7.600e-08  2.80e-01-+------+------+-----2+------+--c---+------+------+------+-
  7.620e-08  2.76e-01 +      +      +    2 +      +  c   +      +      +      + 
  7.640e-08  2.72e-01 +      +      +    2 +      +  c   +      +      +      + 
  7.660e-08  2.68e-01 +      +      +    2 +      +  c   +      +      +      + 
  7.680e-08  2.64e-01 +      +      +   2  +      +  c   +      +      +      + 
  7.700e-08  2.60e-01 +      +      +   2  +      +  c   +      +      +      + 
  7.720e-08  2.56e-01 +      +      +   2  +      +  c   +      +      +      + 
  7.740e-08  2.52e-01 +      +      +   2  +      +  c   +      +      +      + 
  7.760e-08  2.48e-01 +      +      +  2   +      +  c   +      +      +      + 
  7.780e-08  2.44e-01 +      +      +  2   +      +  c   +      +      +      + 
  7.800e-08  2.40e-01-+------+------+--2---+------+--c---+------+------+------+-
  7.820e-08  2.36e-01 +      +      +  2   +      +  c   +      +      +      + 
  7.840e-08  2.32e-01 +      +      + 2    +      +  c   +      +      +      + 
  7.860e-08  2.28e-01 +      +      + 2    +      +  c   +      +      +      + 
  7.880e-08  2.24e-01 +      +      + 2    +      +  c   +      +      +      + 
  7.900e-08  2.20e-01 +      +      +2     +      +  c   +      +      +      + 
  7.920e-08  2.16e-01 +      +      +2     +      +  c   +      +      +      + 
  7.940e-08  2.12e-01 +      +      +2     +      +  c   +      +      +      + 
  7.960e-08  2.08e-01 +      +      +2     +      +  c   +      +      +      + 
  7.980e-08  2.04e-01 +      +      2      +      +   c  +      +      +      + 
  8.000e-08  2.00e-01-+------+------2------+------+---c--+------+------+------+-
  8.020e-08  1.96e-01 +      +      2      +      +   c  +      +      +      + 
  8.040e-08  1.92e-01 +      +     2+      +      +   c  +      +      +      + 
  8.060e-08  1.88e-01 +      +     2+      +      +   c  +      +      +      + 
  8.080e-08  1.84e-01 +      +     2+      +      +   c  +      +      +      + 
  8.100e-08  1.80e-01 +      +     2+      +      +   c  +      +      +      + 
  8.120e-08  1.76e-01 +      +    2 +      +      +   c  +      +      +      + 
  8.140e-08  1.72e-01 +      +    2 +      +      +   c  +      +      +      + 
  8.160e-08  1.68e-01 +      +    2 +      +      +   c  +      +      +      + 
  8.180e-08  1.64e-01 +      +   2  +      +      +   c  +      +      +      + 
  8.200e-08  1.60e-01-+------+---2--+------+------+---c--+------+------+------+-
  8.220e-08  1.56e-01 +      +   2  +      +      +   c  +      +      +      + 
  8.240e-08  1.52e-01 +      +   2  +      +      +   c  +      +      +      + 
  8.260e-08  1.48e-01 +      +  2   +      +      +   c  +      +      +      + 
  8.280e-08  1.44e-01 +      +  2   +      +      +   c  +      +      +      + 
  8.300e-08  1.40e-01 +      +  2   +      +      +   c  +      +      +      + 
  8.320e-08  1.36e-01 +      +  2   +      +      +   c  +      +      +      + 
  8.340e-08  1.32e-01 +      + 2    +      +      +   c  +      +      +      + 
  8.360e-08  1.28e-01 +      + 2    +      +      +   c  +      +      +      + 
  8.380e-08  1.24e-01 +      + 2    +      +      +   c  +      +      +      + 
  8.400e-08  1.20e-01-+------+2-----+------+------+---c--+------+------+------+-
  8.420e-08  1.16e-01 +      +2     +      +      +   c  +      +      +      + 
  8.440e-08  1.12e-01 +      +2     +      +      +   c  +      +      +      + 
  8.460e-08  1.08e-01 +      +2     +      +      +   c  +      +      +      + 
  8.480e-08  1.04e-01 +      2      +      +      +   c  +      +      +      + 
  8.500e-08  1.00e-01 +      2      +      +      +   c  +      +      +      + 
  8.520e-08  9.60e-02 +      2      +      +      +   c  +      +      +      + 
  8.540e-08  9.20e-02 +     2+      +      +      +   c  +      +      +      + 
  8.560e-08  8.80e-02 +     2+      +      +      +   c  +      +      +      + 
  8.580e-08  8.40e-02 +     2+      +      +      +   c  +      +      +      + 
  8.600e-08  8.00e-02-+-----2+------+------+------+---c--+------+------+------+-
  8.620e-08  7.60e-02 +    2 +      +      +      +   c  +      +      +      + 
  8.640e-08  7.20e-02 +    2 +      +      +      +   c  +      +      +      + 
  8.660e-08  6.80e-02 +    2 +      +      +      +   c  +      +      +      + 
  8.680e-08  6.40e-02 +   2  +      +      +      +   c  +      +      +      + 
  8.700e-08  6.00e-02 +   2  +      +      +      +   c  +      +      +      + 
  8.720e-08  5.60e-02 +   2  +      +      +      +   c  +      +      +      + 
  8.740e-08  5.20e-02 +   2  +      +      +      +   c  +      +      +      + 
  8.760e-08  4.80e-02 +  2   +      +      +      +   c  +      +      +      + 
  8.780e-08  4.40e-02 +  2   +      +      +      +   c  +      +      +      + 
  8.800e-08  4.00e-02-+--2---+------+------+------+---c--+------+------+------+-
  8.820e-08  3.60e-02 +  2   +      +      +      +    c +      +      +      + 
  8.840e-08  3.20e-02 + 2    +      +      +      +    c +      +      +      + 
  8.860e-08  2.80e-02 + 2    +      +      +      +    c +      +      +      + 
  8.880e-08  2.40e-02 + 2    +      +      +      +    c +      +      +      + 
  8.900e-08  2.00e-02 +2     +      +      +      +    c +      +      +      + 
  8.920e-08  1.60e-02 +2     +      +      +      +    c +      +      +      + 
  8.940e-08  1.20e-02 +2     +      +      +      +    c +      +      +      + 
  8.960e-08  8.00e-03 +2     +      +      +      +    c +      +      +      + 
  8.980e-08  4.00e-03 2      +      +      +      +    c +      +      +      + 
  9.000e-08  2.64e-16-2------+------+------+------+----c-+------+------+------+-
                      +             +             +             +             + 

b


          ***** job concluded
1****** HSPICE -- J-2014.09-SP2-2 64-BIT (Apr 17 2015) win64 ******             
 ******  
 * ternary and gate using gnrfet technology

 ****** job statistics summary tnom=  25.000 temp=  25.000 ******

  ******  HSPICE Threads Information  ******

  Command Line Threads Count :     1
  Available CPU Count        :     4
  Actual Threads Count       :     1


  ****** Statistics of Ignored Elements ******
  VCCS            :       1

  ******  Circuit Statistics  ******
  # nodes       =      52 # elements   =     119
  # resistors   =      12 # capacitors =      48 # inductors   =       0
  # mutual_inds =       0 # vccs       =      17 # vcvs        =      33
  # cccs        =       0 # ccvs       =       0 # volt_srcs   =       9
  # curr_srcs   =       0 # diodes     =       0 # bjts        =       0
  # jfets       =       0 # mosfets    =       0 # U elements  =       0
  # T elements  =       0 # W elements =       0 # B elements  =       0
  # S elements  =       0 # P elements =       0 # va device   =       0
  # vector_srcs =       0 # N elements =       0


  ******  Runtime Statistics (seconds)  ******

  analysis           time    # points   tot. iter  conv.iter
  op point           0.08           1          33
  transient          0.41         451          98          28 rev=         0
  readin             0.17
  errchk             0.07
  setup              0.01
  output             0.09


           peak memory used         44.79 megabytes
           total cpu time            0.88 seconds
           total elapsed time        1.05 seconds
           job started at     20:31:13 09/28/2024
           job ended   at     20:31:14 09/28/2024


  lic: Release hspice token(s) 
 lic: total license checkout elapse time:        0.09(s)
