 ****** HSPICE -- J-2014.09-SP2-2 64-BIT (Apr 17 2015) win64 ******             
  Copyright (C) 2014 Synopsys, Inc. All Rights Reserved.                        
  Unpublished-rights reserved under US copyright laws.
  This program is protected by law and is subject to the
  terms and conditions of the license agreement from Synopsys.
  Use of this program is your acceptance to be bound by the
  license agreement. HSPICE is the trademark of Synopsys, Inc.
  Input File: 6tsram.sp                                                         
  Command line options: -i 6tsram.sp -o 6tsram.lis
  lic:  
  lic: FLEXlm: v10.9.8 
  lic: USER:   DELL                 HOSTNAME: DESKTOP-7ITPLTQ 
  lic: HOSTID: "c03eba3298b7 18473d25e973 1a473d25e973 2a473d25e973" PID:      1
 9068 
  lic: Using FLEXlm license file: 
  lic: 27000@DESKTOP-7ITPLTQ 
  lic: Checkout 1 hspice 
  lic: License/Maintenance for hspice will expire on 30-dec-2030/2020.12 
  lic: 1(in_use)/99(total) FLOATING license(s) on SERVER 27000@DESKTOP-7ITPLTQ 
  lic:   
 Init: read install configuration file: C:\synopsys\Hspice_J-2014.09-SP2-2\meta.cfg
1****** HSPICE -- J-2014.09-SP2-2 64-BIT (Apr 17 2015) win64 ******             
 ******  
 * ternary sram cell using gnrfets

 ****** circuit name directory
 circuit number to circuit name directory
   number circuitname                     definition         multiplier
        0 main circuit
  **info** (6tsram.sp:20) DC voltage reset to initial transient source value              in source        0:vina                new dc=  0.0000D+00
  
      
  **warning** PIVOT option setting is simplified, pivot = 13 is obsolete,
              automatically switch to pivot = 1.
 *****************************************************************
 ******  option summary
 ******
 runlvl  = 3         bypass  = 2         
  Opening plot unit= 79
 file=6tsram.pa0

1****** HSPICE -- J-2014.09-SP2-2 64-BIT (Apr 17 2015) win64 ******             
 ******  
 * ternary sram cell using gnrfets

 ****** operating point information tnom=  25.000 temp=  25.000 ******
 ****** operating point status is all       simulation time is   0.000e+00
     node    =voltage       node    =voltage       node    =voltage

 + 0:a       = 0.000e+00  0:op      = 1.200e+00  0:z       = 1.200e+00


 **** voltage sources

 subckt                          
 element   0:vds       0:vina    
  volts     1.200e+00   0.000e+00
  current  -2.815e-08   0.000e+00
  power     3.378e-08   0.000e+00

     total voltage source power dissipation=  3.378e-08       watts


 ******  
 * ternary sram cell using gnrfets

 ****** transient analysis tnom=  25.000 temp=  25.000 ******
 avgpower= 4.3827e-05  from= 1.0000e-09     to= 9.0000e-08

a


 legend:

  a: v(a)
  b: v(out)
  c: v(op)

      time       v(a)
 (abc     )     0.000e+00     5.000e-01     1.000e-00     1.500e+00    2.000e+00
                      +             +             +             +             + 
  0.000e+00  0.00e+00-a------+------+------+------+-----2+------+------+------+-
  2.000e-10  0.00e+00 a      +      +      +      +     2+      +      +      + 
  4.000e-10  0.00e+00 a      +      +      +      +     2+      +      +      + 
  6.000e-10  0.00e+00 a      +      +      +      +     2+      +      +      + 
  8.000e-10  0.00e+00 a      +      +      +      +     2+      +      +      + 
  1.000e-09  0.00e+00 a      +      +      +      +     2+      +      +      + 
  1.200e-09  0.00e+00 a      +      +      +      +     2+      +      +      + 
  1.400e-09  0.00e+00 a      +      +      +      +     2+      +      +      + 
  1.600e-09  0.00e+00 a      +      +      +      +     2+      +      +      + 
  1.800e-09  0.00e+00 a      +      +      +      +     2+      +      +      + 
  2.000e-09  0.00e+00-a------+------+------+------+-----2+------+------+------+-
  2.200e-09  0.00e+00 a      +      +      +      +     2+      +      +      + 
  2.400e-09  0.00e+00 a      +      +      +      +     2+      +      +      + 
  2.600e-09  0.00e+00 a      +      +      +      +     2+      +      +      + 
  2.800e-09  0.00e+00 a      +      +      +      +     2+      +      +      + 
  3.000e-09  0.00e+00 a      +      +      +      +     2+      +      +      + 
  3.200e-09  0.00e+00 a      +      +      +      +     2+      +      +      + 
  3.400e-09  0.00e+00 a      +      +      +      +     2+      +      +      + 
  3.600e-09  0.00e+00 a      +      +      +      +     2+      +      +      + 
  3.800e-09  0.00e+00 a      +      +      +      +     2+      +      +      + 
  4.000e-09  0.00e+00-a------+------+------+------+-----2+------+------+------+-
  4.200e-09  0.00e+00 a      +      +      +      +     2+      +      +      + 
  4.400e-09  0.00e+00 a      +      +      +      +     2+      +      +      + 
  4.600e-09  0.00e+00 a      +      +      +      +     2+      +      +      + 
  4.800e-09  0.00e+00 a      +      +      +      +     2+      +      +      + 
  5.000e-09  0.00e+00 a      +      +      +      +     2+      +      +      + 
  5.200e-09  0.00e+00 a      +      +      +      +     2+      +      +      + 
  5.400e-09  0.00e+00 a      +      +      +      +     2+      +      +      + 
  5.600e-09  0.00e+00 a      +      +      +      +     2+      +      +      + 
  5.800e-09  0.00e+00 a      +      +      +      +     2+      +      +      + 
  6.000e-09  0.00e+00-a------+------+------+------+-----2+------+------+------+-
  6.200e-09  0.00e+00 a      +      +      +      +     2+      +      +      + 
  6.400e-09  0.00e+00 a      +      +      +      +     2+      +      +      + 
  6.600e-09  0.00e+00 a      +      +      +      +     2+      +      +      + 
  6.800e-09  0.00e+00 a      +      +      +      +     2+      +      +      + 
  7.000e-09  0.00e+00 a      +      +      +      +     2+      +      +      + 
  7.200e-09  0.00e+00 a      +      +      +      +     2+      +      +      + 
  7.400e-09  0.00e+00 a      +      +      +      +     2+      +      +      + 
  7.600e-09  0.00e+00 a      +      +      +      +     2+      +      +      + 
  7.800e-09  0.00e+00 a      +      +      +      +     2+      +      +      + 
  8.000e-09  0.00e+00-a------+------+------+------+-----2+------+------+------+-
  8.200e-09  0.00e+00 a      +      +      +      +     2+      +      +      + 
  8.400e-09  0.00e+00 a      +      +      +      +     2+      +      +      + 
  8.600e-09  0.00e+00 a      +      +      +      +     2+      +      +      + 
  8.800e-09  0.00e+00 a      +      +      +      +     2+      +      +      + 
  9.000e-09  0.00e+00 a      +      +      +      +     2+      +      +      + 
  9.200e-09  0.00e+00 a      +      +      +      +     2+      +      +      + 
  9.400e-09  0.00e+00 a      +      +      +      +     2+      +      +      + 
  9.600e-09  0.00e+00 a      +      +      +      +     2+      +      +      + 
  9.800e-09  0.00e+00 a      +      +      +      +     2+      +      +      + 
  1.000e-08  0.00e+00-a------+------+------+------+-----2+------+------+------+-
  1.020e-08  0.00e+00 a      +      +      +      +     2+      +      +      + 
  1.040e-08  0.00e+00 a      +      +      +      +     2+      +      +      + 
  1.060e-08  0.00e+00 a      +      +      +      +     2+      +      +      + 
  1.080e-08  0.00e+00 a      +      +      +      +     2+      +      +      + 
  1.100e-08  0.00e+00 a      +      +      +      +     2+      +      +      + 
  1.120e-08  0.00e+00 a      +      +      +      +     2+      +      +      + 
  1.140e-08  0.00e+00 a      +      +      +      +     2+      +      +      + 
  1.160e-08  0.00e+00 a      +      +      +      +     2+      +      +      + 
  1.180e-08  0.00e+00 a      +      +      +      +     2+      +      +      + 
  1.200e-08  0.00e+00-a------+------+------+------+-----2+------+------+------+-
  1.220e-08  0.00e+00 a      +      +      +      +     2+      +      +      + 
  1.240e-08  0.00e+00 a      +      +      +      +     2+      +      +      + 
  1.260e-08  0.00e+00 a      +      +      +      +     2+      +      +      + 
  1.280e-08  0.00e+00 a      +      +      +      +     2+      +      +      + 
  1.300e-08  0.00e+00 a      +      +      +      +     2+      +      +      + 
  1.320e-08  0.00e+00 a      +      +      +      +     2+      +      +      + 
  1.340e-08  0.00e+00 a      +      +      +      +     2+      +      +      + 
  1.360e-08  0.00e+00 a      +      +      +      +     2+      +      +      + 
  1.380e-08  0.00e+00 a      +      +      +      +     2+      +      +      + 
  1.400e-08  0.00e+00-a------+------+------+------+-----2+------+------+------+-
  1.420e-08  0.00e+00 a      +      +      +      +     2+      +      +      + 
  1.440e-08  0.00e+00 a      +      +      +      +     2+      +      +      + 
  1.460e-08  0.00e+00 a      +      +      +      +     2+      +      +      + 
  1.480e-08  0.00e+00 a      +      +      +      +     2+      +      +      + 
  1.500e-08  0.00e+00 a      +      +      +      +     2+      +      +      + 
  1.520e-08  0.00e+00 a      +      +      +      +     2+      +      +      + 
  1.540e-08  0.00e+00 a      +      +      +      +     2+      +      +      + 
  1.560e-08  0.00e+00 a      +      +      +      +     2+      +      +      + 
  1.580e-08  0.00e+00 a      +      +      +      +     2+      +      +      + 
  1.600e-08  0.00e+00-a------+------+------+------+-----2+------+------+------+-
  1.620e-08  0.00e+00 a      +      +      +      +     2+      +      +      + 
  1.640e-08  0.00e+00 a      +      +      +      +     2+      +      +      + 
  1.660e-08  0.00e+00 a      +      +      +      +     2+      +      +      + 
  1.680e-08  0.00e+00 a      +      +      +      +     2+      +      +      + 
  1.700e-08  0.00e+00 a      +      +      +      +     2+      +      +      + 
  1.720e-08  0.00e+00 a      +      +      +      +     2+      +      +      + 
  1.740e-08  0.00e+00 a      +      +      +      +     2+      +      +      + 
  1.760e-08  0.00e+00 a      +      +      +      +     2+      +      +      + 
  1.780e-08  0.00e+00 a      +      +      +      +     2+      +      +      + 
  1.800e-08  0.00e+00-a------+------+------+------+-----2+------+------+------+-
  1.820e-08  0.00e+00 a      +      +      +      +     2+      +      +      + 
  1.840e-08  0.00e+00 a      +      +      +      +     2+      +      +      + 
  1.860e-08  0.00e+00 a      +      +      +      +     2+      +      +      + 
  1.880e-08  0.00e+00 a      +      +      +      +     2+      +      +      + 
  1.900e-08  0.00e+00 a      +      +      +      +     2+      +      +      + 
  1.920e-08  0.00e+00 a      +      +      +      +     2+      +      +      + 
  1.940e-08  0.00e+00 a      +      +      +      +     2+      +      +      + 
  1.960e-08  0.00e+00 a      +      +      +      +     2+      +      +      + 
  1.980e-08  0.00e+00 a      +      +      +      +     2+      +      +      + 
  2.000e-08  0.00e+00-a------+------+------+------+-----2+------+------+------+-
  2.020e-08  0.00e+00 a      +      +      +      +     2+      +      +      + 
  2.040e-08  0.00e+00 a      +      +      +      +     2+      +      +      + 
  2.060e-08  0.00e+00 a      +      +      +      +     2+      +      +      + 
  2.080e-08  0.00e+00 a      +      +      +      +     2+      +      +      + 
  2.100e-08  0.00e+00 a      +      +      +      +     2+      +      +      + 
  2.120e-08  0.00e+00 a      +      +      +      +     2+      +      +      + 
  2.140e-08  0.00e+00 a      +      +      +      +     2+      +      +      + 
  2.160e-08  0.00e+00 a      +      +      +      +     2+      +      +      + 
  2.180e-08  0.00e+00 a      +      +      +      +     2+      +      +      + 
  2.200e-08  0.00e+00-a------+------+------+------+-----2+------+------+------+-
  2.220e-08  0.00e+00 a      +      +      +      +     2+      +      +      + 
  2.240e-08  0.00e+00 a      +      +      +      +     2+      +      +      + 
  2.260e-08  0.00e+00 a      +      +      +      +     2+      +      +      + 
  2.280e-08  0.00e+00 a      +      +      +      +     2+      +      +      + 
  2.300e-08  0.00e+00 a      +      +      +      +     2+      +      +      + 
  2.320e-08  0.00e+00 a      +      +      +      +     2+      +      +      + 
  2.340e-08  0.00e+00 a      +      +      +      +     2+      +      +      + 
  2.360e-08  0.00e+00 a      +      +      +      +     2+      +      +      + 
  2.380e-08  0.00e+00 a      +      +      +      +     2+      +      +      + 
  2.400e-08  0.00e+00-a------+------+------+------+-----2+------+------+------+-
  2.420e-08  0.00e+00 a      +      +      +      +     2+      +      +      + 
  2.440e-08  0.00e+00 a      +      +      +      +     2+      +      +      + 
  2.460e-08  0.00e+00 a      +      +      +      +     2+      +      +      + 
  2.480e-08  0.00e+00 a      +      +      +      +     2+      +      +      + 
  2.500e-08  0.00e+00 a      +      +      +      +     2+      +      +      + 
  2.520e-08  0.00e+00 a      +      +      +      +     2+      +      +      + 
  2.540e-08  0.00e+00 a      +      +      +      +     2+      +      +      + 
  2.560e-08  0.00e+00 a      +      +      +      +     2+      +      +      + 
  2.580e-08  0.00e+00 a      +      +      +      +     2+      +      +      + 
  2.600e-08  0.00e+00-a------+------+------+------+-----2+------+------+------+-
  2.620e-08  0.00e+00 a      +      +      +      +     2+      +      +      + 
  2.640e-08  0.00e+00 a      +      +      +      +     2+      +      +      + 
  2.660e-08  0.00e+00 a      +      +      +      +     2+      +      +      + 
  2.680e-08  0.00e+00 a      +      +      +      +     2+      +      +      + 
  2.700e-08  0.00e+00 a      +      +      +      +     2+      +      +      + 
  2.720e-08  0.00e+00 a      +      +      +      +     2+      +      +      + 
  2.740e-08  0.00e+00 a      +      +      +      +     2+      +      +      + 
  2.760e-08  0.00e+00 a      +      +      +      +     2+      +      +      + 
  2.780e-08  0.00e+00 a      +      +      +      +     2+      +      +      + 
  2.800e-08  0.00e+00-a------+------+------+------+-----2+------+------+------+-
  2.820e-08  0.00e+00 a      +      +      +      +     2+      +      +      + 
  2.840e-08  0.00e+00 a      +      +      +      +     2+      +      +      + 
  2.860e-08  0.00e+00 a      +      +      +      +     2+      +      +      + 
  2.880e-08  0.00e+00 a      +      +      +      +     2+      +      +      + 
  2.900e-08  0.00e+00 a      +      +      +      +     2+      +      +      + 
  2.920e-08  0.00e+00 a      +      +      +      +     2+      +      +      + 
  2.940e-08  0.00e+00 a      +      +      +      +     2+      +      +      + 
  2.960e-08  0.00e+00 a      +      +      +      +     2+      +      +      + 
  2.980e-08  0.00e+00 a      +      +      +      +     2+      +      +      + 
  3.000e-08  6.00e-01-+------+------+--a---c-b----+------+------+------+------+-
  3.020e-08  6.00e-01 +      +      +  2 b +      +      +      +      +      + 
  3.040e-08  6.00e-01 +      +      +  2 b +      +      +      +      +      + 
  3.060e-08  6.00e-01 +      +      +  2 b +      +      +      +      +      + 
  3.080e-08  6.00e-01 +      +      +  2 b +      +      +      +      +      + 
  3.100e-08  6.00e-01 +      +      +  2 b +      +      +      +      +      + 
  3.120e-08  6.00e-01 +      +      +  2 b +      +      +      +      +      + 
  3.140e-08  6.00e-01 +      +      +  2 b +      +      +      +      +      + 
  3.160e-08  6.00e-01 +      +      +  2 b +      +      +      +      +      + 
  3.180e-08  6.00e-01 +      +      +  2 b +      +      +      +      +      + 
  3.200e-08  6.00e-01-+------+------+--2-b-+------+------+------+------+------+-
  3.220e-08  6.00e-01 +      +      +  2 b +      +      +      +      +      + 
  3.240e-08  6.00e-01 +      +      +  2 b +      +      +      +      +      + 
  3.260e-08  6.00e-01 +      +      +  2 b +      +      +      +      +      + 
  3.280e-08  6.00e-01 +      +      +  2 b +      +      +      +      +      + 
  3.300e-08  6.00e-01 +      +      +  2 b +      +      +      +      +      + 
  3.320e-08  6.00e-01 +      +      +  2 b +      +      +      +      +      + 
  3.340e-08  6.00e-01 +      +      +  2 b +      +      +      +      +      + 
  3.360e-08  6.00e-01 +      +      +  2 b +      +      +      +      +      + 
  3.380e-08  6.00e-01 +      +      +  2 b +      +      +      +      +      + 
  3.400e-08  6.00e-01-+------+------+--2-b-+------+------+------+------+------+-
  3.420e-08  6.00e-01 +      +      +  2 b +      +      +      +      +      + 
  3.440e-08  6.00e-01 +      +      +  2 b +      +      +      +      +      + 
  3.460e-08  6.00e-01 +      +      +  2 b +      +      +      +      +      + 
  3.480e-08  6.00e-01 +      +      +  2 b +      +      +      +      +      + 
  3.500e-08  6.00e-01 +      +      +  2 b +      +      +      +      +      + 
  3.520e-08  6.00e-01 +      +      +  2 b +      +      +      +      +      + 
  3.540e-08  6.00e-01 +      +      +  2 b +      +      +      +      +      + 
  3.560e-08  6.00e-01 +      +      +  2 b +      +      +      +      +      + 
  3.580e-08  6.00e-01 +      +      +  2 b +      +      +      +      +      + 
  3.600e-08  6.00e-01-+------+------+--2-b-+------+------+------+------+------+-
  3.620e-08  6.00e-01 +      +      +  2 b +      +      +      +      +      + 
  3.640e-08  6.00e-01 +      +      +  2 b +      +      +      +      +      + 
  3.660e-08  6.00e-01 +      +      +  2 b +      +      +      +      +      + 
  3.680e-08  6.00e-01 +      +      +  2 b +      +      +      +      +      + 
  3.700e-08  6.00e-01 +      +      +  2 b +      +      +      +      +      + 
  3.720e-08  6.00e-01 +      +      +  2 b +      +      +      +      +      + 
  3.740e-08  6.00e-01 +      +      +  2 b +      +      +      +      +      + 
  3.760e-08  6.00e-01 +      +      +  2 b +      +      +      +      +      + 
  3.780e-08  6.00e-01 +      +      +  2 b +      +      +      +      +      + 
  3.800e-08  6.00e-01-+------+------+--2-b-+------+------+------+------+------+-
  3.820e-08  6.00e-01 +      +      +  2 b +      +      +      +      +      + 
  3.840e-08  6.00e-01 +      +      +  2 b +      +      +      +      +      + 
  3.860e-08  6.00e-01 +      +      +  2 b +      +      +      +      +      + 
  3.880e-08  6.00e-01 +      +      +  2 b +      +      +      +      +      + 
  3.900e-08  6.00e-01 +      +      +  2 b +      +      +      +      +      + 
  3.920e-08  6.00e-01 +      +      +  2 b +      +      +      +      +      + 
  3.940e-08  6.00e-01 +      +      +  2 b +      +      +      +      +      + 
  3.960e-08  6.00e-01 +      +      +  2 b +      +      +      +      +      + 
  3.980e-08  6.00e-01 +      +      +  2 b +      +      +      +      +      + 
  4.000e-08  6.00e-01-+------+------+--2-b-+------+------+------+------+------+-
  4.020e-08  6.00e-01 +      +      +  2 b +      +      +      +      +      + 
  4.040e-08  6.00e-01 +      +      +  2 b +      +      +      +      +      + 
  4.060e-08  6.00e-01 +      +      +  2 b +      +      +      +      +      + 
  4.080e-08  6.00e-01 +      +      +  2 b +      +      +      +      +      + 
  4.100e-08  6.00e-01 +      +      +  2 b +      +      +      +      +      + 
  4.120e-08  6.00e-01 +      +      +  2 b +      +      +      +      +      + 
  4.140e-08  6.00e-01 +      +      +  2 b +      +      +      +      +      + 
  4.160e-08  6.00e-01 +      +      +  2 b +      +      +      +      +      + 
  4.180e-08  6.00e-01 +      +      +  2 b +      +      +      +      +      + 
  4.200e-08  6.00e-01-+------+------+--2-b-+------+------+------+------+------+-
  4.220e-08  6.00e-01 +      +      +  2 b +      +      +      +      +      + 
  4.240e-08  6.00e-01 +      +      +  2 b +      +      +      +      +      + 
  4.260e-08  6.00e-01 +      +      +  2 b +      +      +      +      +      + 
  4.280e-08  6.00e-01 +      +      +  2 b +      +      +      +      +      + 
  4.300e-08  6.00e-01 +      +      +  2 b +      +      +      +      +      + 
  4.320e-08  6.00e-01 +      +      +  2 b +      +      +      +      +      + 
  4.340e-08  6.00e-01 +      +      +  2 b +      +      +      +      +      + 
  4.360e-08  6.00e-01 +      +      +  2 b +      +      +      +      +      + 
  4.380e-08  6.00e-01 +      +      +  2 b +      +      +      +      +      + 
  4.400e-08  6.00e-01-+------+------+--2-b-+------+------+------+------+------+-
  4.420e-08  6.00e-01 +      +      +  2 b +      +      +      +      +      + 
  4.440e-08  6.00e-01 +      +      +  2 b +      +      +      +      +      + 
  4.460e-08  6.00e-01 +      +      +  2 b +      +      +      +      +      + 
  4.480e-08  6.00e-01 +      +      +  2 b +      +      +      +      +      + 
  4.500e-08  6.00e-01 +      +      +  2 b +      +      +      +      +      + 
  4.520e-08  6.00e-01 +      +      +  2 b +      +      +      +      +      + 
  4.540e-08  6.00e-01 +      +      +  2 b +      +      +      +      +      + 
  4.560e-08  6.00e-01 +      +      +  2 b +      +      +      +      +      + 
  4.580e-08  6.00e-01 +      +      +  2 b +      +      +      +      +      + 
  4.600e-08  6.00e-01-+------+------+--2-b-+------+------+------+------+------+-
  4.620e-08  6.00e-01 +      +      +  2 b +      +      +      +      +      + 
  4.640e-08  6.00e-01 +      +      +  2 b +      +      +      +      +      + 
  4.660e-08  6.00e-01 +      +      +  2 b +      +      +      +      +      + 
  4.680e-08  6.00e-01 +      +      +  2 b +      +      +      +      +      + 
  4.700e-08  6.00e-01 +      +      +  2 b +      +      +      +      +      + 
  4.720e-08  6.00e-01 +      +      +  2 b +      +      +      +      +      + 
  4.740e-08  6.00e-01 +      +      +  2 b +      +      +      +      +      + 
  4.760e-08  6.00e-01 +      +      +  2 b +      +      +      +      +      + 
  4.780e-08  6.00e-01 +      +      +  2 b +      +      +      +      +      + 
  4.800e-08  6.00e-01-+------+------+--2-b-+------+------+------+------+------+-
  4.820e-08  6.00e-01 +      +      +  2 b +      +      +      +      +      + 
  4.840e-08  6.00e-01 +      +      +  2 b +      +      +      +      +      + 
  4.860e-08  6.00e-01 +      +      +  2 b +      +      +      +      +      + 
  4.880e-08  6.00e-01 +      +      +  2 b +      +      +      +      +      + 
  4.900e-08  6.00e-01 +      +      +  2 b +      +      +      +      +      + 
  4.920e-08  6.00e-01 +      +      +  2 b +      +      +      +      +      + 
  4.940e-08  6.00e-01 +      +      +  2 b +      +      +      +      +      + 
  4.960e-08  6.00e-01 +      +      +  2 b +      +      +      +      +      + 
  4.980e-08  6.00e-01 +      +      +  2 b +      +      +      +      +      + 
  5.000e-08  6.00e-01-+------+------+--2-b-+------+------+------+------+------+-
  5.020e-08  6.00e-01 +      +      +  2 b +      +      +      +      +      + 
  5.040e-08  6.00e-01 +      +      +  2 b +      +      +      +      +      + 
  5.060e-08  6.00e-01 +      +      +  2 b +      +      +      +      +      + 
  5.080e-08  6.00e-01 +      +      +  2 b +      +      +      +      +      + 
  5.100e-08  6.00e-01 +      +      +  2 b +      +      +      +      +      + 
  5.120e-08  6.00e-01 +      +      +  2 b +      +      +      +      +      + 
  5.140e-08  6.00e-01 +      +      +  2 b +      +      +      +      +      + 
  5.160e-08  6.00e-01 +      +      +  2 b +      +      +      +      +      + 
  5.180e-08  6.00e-01 +      +      +  2 b +      +      +      +      +      + 
  5.200e-08  6.00e-01-+------+------+--2-b-+------+------+------+------+------+-
  5.220e-08  6.00e-01 +      +      +  2 b +      +      +      +      +      + 
  5.240e-08  6.00e-01 +      +      +  2 b +      +      +      +      +      + 
  5.260e-08  6.00e-01 +      +      +  2 b +      +      +      +      +      + 
  5.280e-08  6.00e-01 +      +      +  2 b +      +      +      +      +      + 
  5.300e-08  6.00e-01 +      +      +  2 b +      +      +      +      +      + 
  5.320e-08  6.00e-01 +      +      +  2 b +      +      +      +      +      + 
  5.340e-08  6.00e-01 +      +      +  2 b +      +      +      +      +      + 
  5.360e-08  6.00e-01 +      +      +  2 b +      +      +      +      +      + 
  5.380e-08  6.00e-01 +      +      +  2 b +      +      +      +      +      + 
  5.400e-08  6.00e-01-+------+------+--2-b-+------+------+------+------+------+-
  5.420e-08  6.00e-01 +      +      +  2 b +      +      +      +      +      + 
  5.440e-08  6.00e-01 +      +      +  2 b +      +      +      +      +      + 
  5.460e-08  6.00e-01 +      +      +  2 b +      +      +      +      +      + 
  5.480e-08  6.00e-01 +      +      +  2 b +      +      +      +      +      + 
  5.500e-08  6.00e-01 +      +      +  2 b +      +      +      +      +      + 
  5.520e-08  6.00e-01 +      +      +  2 b +      +      +      +      +      + 
  5.540e-08  6.00e-01 +      +      +  2 b +      +      +      +      +      + 
  5.560e-08  6.00e-01 +      +      +  2 b +      +      +      +      +      + 
  5.580e-08  6.00e-01 +      +      +  2 b +      +      +      +      +      + 
  5.600e-08  6.00e-01-+------+------+--2-b-+------+------+------+------+------+-
  5.620e-08  6.00e-01 +      +      +  2 b +      +      +      +      +      + 
  5.640e-08  6.00e-01 +      +      +  2 b +      +      +      +      +      + 
  5.660e-08  6.00e-01 +      +      +  2 b +      +      +      +      +      + 
  5.680e-08  6.00e-01 +      +      +  2 b +      +      +      +      +      + 
  5.700e-08  6.00e-01 +      +      +  2 b +      +      +      +      +      + 
  5.720e-08  6.00e-01 +      +      +  2 b +      +      +      +      +      + 
  5.740e-08  6.00e-01 +      +      +  2 b +      +      +      +      +      + 
  5.760e-08  6.00e-01 +      +      +  2 b +      +      +      +      +      + 
  5.780e-08  6.00e-01 +      +      +  2 b +      +      +      +      +      + 
  5.800e-08  6.00e-01-+------+------+--2-b-+------+------+------+------+------+-
  5.820e-08  6.00e-01 +      +      +  2 b +      +      +      +      +      + 
  5.840e-08  6.00e-01 +      +      +  2 b +      +      +      +      +      + 
  5.860e-08  6.00e-01 +      +      +  2 b +      +      +      +      +      + 
  5.880e-08  6.00e-01 +      +      +  2 b +      +      +      +      +      + 
  5.900e-08  6.00e-01 +      +      +  2 b +      +      +      +      +      + 
  5.920e-08  6.00e-01 +      +      +  2 b +      +      +      +      +      + 
  5.940e-08  6.00e-01 +      +      +  2 b +      +      +      +      +      + 
  5.960e-08  6.00e-01 +      +      +  2 b +      +      +      +      +      + 
  5.980e-08  6.00e-01 +      +      +  2 b +      +      +      +      +      + 
  6.000e-08  1.20e+00-2------+------+------+------+-----a+------+------+------+-
  6.020e-08  1.20e+00 2      +      +      +      +     a+      +      +      + 
  6.040e-08  1.20e+00 2      +      +      +      +     a+      +      +      + 
  6.060e-08  1.20e+00 2      +      +      +      +     a+      +      +      + 
  6.080e-08  1.20e+00 2      +      +      +      +     a+      +      +      + 
  6.100e-08  1.20e+00 2      +      +      +      +     a+      +      +      + 
  6.120e-08  1.20e+00 2      +      +      +      +     a+      +      +      + 
  6.140e-08  1.20e+00 2      +      +      +      +     a+      +      +      + 
  6.160e-08  1.20e+00 2      +      +      +      +     a+      +      +      + 
  6.180e-08  1.20e+00 2      +      +      +      +     a+      +      +      + 
  6.200e-08  1.20e+00-2------+------+------+------+-----a+------+------+------+-
  6.220e-08  1.20e+00 2      +      +      +      +     a+      +      +      + 
  6.240e-08  1.20e+00 2      +      +      +      +     a+      +      +      + 
  6.260e-08  1.20e+00 2      +      +      +      +     a+      +      +      + 
  6.280e-08  1.20e+00 2      +      +      +      +     a+      +      +      + 
  6.300e-08  1.20e+00 2      +      +      +      +     a+      +      +      + 
  6.320e-08  1.20e+00 2      +      +      +      +     a+      +      +      + 
  6.340e-08  1.20e+00 2      +      +      +      +     a+      +      +      + 
  6.360e-08  1.20e+00 2      +      +      +      +     a+      +      +      + 
  6.380e-08  1.20e+00 2      +      +      +      +     a+      +      +      + 
  6.400e-08  1.20e+00-2------+------+------+------+-----a+------+------+------+-
  6.420e-08  1.20e+00 2      +      +      +      +     a+      +      +      + 
  6.440e-08  1.20e+00 2      +      +      +      +     a+      +      +      + 
  6.460e-08  1.20e+00 2      +      +      +      +     a+      +      +      + 
  6.480e-08  1.20e+00 2      +      +      +      +     a+      +      +      + 
  6.500e-08  1.20e+00 2      +      +      +      +     a+      +      +      + 
  6.520e-08  1.20e+00 2      +      +      +      +     a+      +      +      + 
  6.540e-08  1.20e+00 2      +      +      +      +     a+      +      +      + 
  6.560e-08  1.20e+00 2      +      +      +      +     a+      +      +      + 
  6.580e-08  1.20e+00 2      +      +      +      +     a+      +      +      + 
  6.600e-08  1.20e+00-2------+------+------+------+-----a+------+------+------+-
  6.620e-08  1.20e+00 2      +      +      +      +     a+      +      +      + 
  6.640e-08  1.20e+00 2      +      +      +      +     a+      +      +      + 
  6.660e-08  1.20e+00 2      +      +      +      +     a+      +      +      + 
  6.680e-08  1.20e+00 2      +      +      +      +     a+      +      +      + 
  6.700e-08  1.20e+00 2      +      +      +      +     a+      +      +      + 
  6.720e-08  1.20e+00 2      +      +      +      +     a+      +      +      + 
  6.740e-08  1.20e+00 2      +      +      +      +     a+      +      +      + 
  6.760e-08  1.20e+00 2      +      +      +      +     a+      +      +      + 
  6.780e-08  1.20e+00 2      +      +      +      +     a+      +      +      + 
  6.800e-08  1.20e+00-2------+------+------+------+-----a+------+------+------+-
  6.820e-08  1.20e+00 2      +      +      +      +     a+      +      +      + 
  6.840e-08  1.20e+00 2      +      +      +      +     a+      +      +      + 
  6.860e-08  1.20e+00 2      +      +      +      +     a+      +      +      + 
  6.880e-08  1.20e+00 2      +      +      +      +     a+      +      +      + 
  6.900e-08  1.20e+00 2      +      +      +      +     a+      +      +      + 
  6.920e-08  1.20e+00 2      +      +      +      +     a+      +      +      + 
  6.940e-08  1.20e+00 2      +      +      +      +     a+      +      +      + 
  6.960e-08  1.20e+00 2      +      +      +      +     a+      +      +      + 
  6.980e-08  1.20e+00 2      +      +      +      +     a+      +      +      + 
  7.000e-08  1.20e+00-2------+------+------+------+-----a+------+------+------+-
  7.020e-08  1.20e+00 2      +      +      +      +     a+      +      +      + 
  7.040e-08  1.20e+00 2      +      +      +      +     a+      +      +      + 
  7.060e-08  1.20e+00 2      +      +      +      +     a+      +      +      + 
  7.080e-08  1.20e+00 2      +      +      +      +     a+      +      +      + 
  7.100e-08  1.20e+00 2      +      +      +      +     a+      +      +      + 
  7.120e-08  1.20e+00 2      +      +      +      +     a+      +      +      + 
  7.140e-08  1.20e+00 2      +      +      +      +     a+      +      +      + 
  7.160e-08  1.20e+00 2      +      +      +      +     a+      +      +      + 
  7.180e-08  1.20e+00 2      +      +      +      +     a+      +      +      + 
  7.200e-08  1.20e+00-2------+------+------+------+-----a+------+------+------+-
  7.220e-08  1.20e+00 2      +      +      +      +     a+      +      +      + 
  7.240e-08  1.20e+00 2      +      +      +      +     a+      +      +      + 
  7.260e-08  1.20e+00 2      +      +      +      +     a+      +      +      + 
  7.280e-08  1.20e+00 2      +      +      +      +     a+      +      +      + 
  7.300e-08  1.20e+00 2      +      +      +      +     a+      +      +      + 
  7.320e-08  1.20e+00 2      +      +      +      +     a+      +      +      + 
  7.340e-08  1.20e+00 2      +      +      +      +     a+      +      +      + 
  7.360e-08  1.20e+00 2      +      +      +      +     a+      +      +      + 
  7.380e-08  1.20e+00 2      +      +      +      +     a+      +      +      + 
  7.400e-08  1.20e+00-2------+------+------+------+-----a+------+------+------+-
  7.420e-08  1.20e+00 2      +      +      +      +     a+      +      +      + 
  7.440e-08  1.20e+00 2      +      +      +      +     a+      +      +      + 
  7.460e-08  1.20e+00 2      +      +      +      +     a+      +      +      + 
  7.480e-08  1.20e+00 2      +      +      +      +     a+      +      +      + 
  7.500e-08  1.20e+00 2      +      +      +      +     a+      +      +      + 
  7.520e-08  1.20e+00 2      +      +      +      +     a+      +      +      + 
  7.540e-08  1.20e+00 2      +      +      +      +     a+      +      +      + 
  7.560e-08  1.20e+00 2      +      +      +      +     a+      +      +      + 
  7.580e-08  1.20e+00 2      +      +      +      +     a+      +      +      + 
  7.600e-08  1.20e+00-2------+------+------+------+-----a+------+------+------+-
  7.620e-08  1.20e+00 2      +      +      +      +     a+      +      +      + 
  7.640e-08  1.20e+00 2      +      +      +      +     a+      +      +      + 
  7.660e-08  1.20e+00 2      +      +      +      +     a+      +      +      + 
  7.680e-08  1.20e+00 2      +      +      +      +     a+      +      +      + 
  7.700e-08  1.20e+00 2      +      +      +      +     a+      +      +      + 
  7.720e-08  1.20e+00 2      +      +      +      +     a+      +      +      + 
  7.740e-08  1.20e+00 2      +      +      +      +     a+      +      +      + 
  7.760e-08  1.20e+00 2      +      +      +      +     a+      +      +      + 
  7.780e-08  1.20e+00 2      +      +      +      +     a+      +      +      + 
  7.800e-08  1.20e+00-2------+------+------+------+-----a+------+------+------+-
  7.820e-08  1.20e+00 2      +      +      +      +     a+      +      +      + 
  7.840e-08  1.20e+00 2      +      +      +      +     a+      +      +      + 
  7.860e-08  1.20e+00 2      +      +      +      +     a+      +      +      + 
  7.880e-08  1.20e+00 2      +      +      +      +     a+      +      +      + 
  7.900e-08  1.20e+00 2      +      +      +      +     a+      +      +      + 
  7.920e-08  1.20e+00 2      +      +      +      +     a+      +      +      + 
  7.940e-08  1.20e+00 2      +      +      +      +     a+      +      +      + 
  7.960e-08  1.20e+00 2      +      +      +      +     a+      +      +      + 
  7.980e-08  1.20e+00 2      +      +      +      +     a+      +      +      + 
  8.000e-08  1.20e+00-2------+------+------+------+-----a+------+------+------+-
  8.020e-08  1.20e+00 2      +      +      +      +     a+      +      +      + 
  8.040e-08  1.20e+00 2      +      +      +      +     a+      +      +      + 
  8.060e-08  1.20e+00 2      +      +      +      +     a+      +      +      + 
  8.080e-08  1.20e+00 2      +      +      +      +     a+      +      +      + 
  8.100e-08  1.20e+00 2      +      +      +      +     a+      +      +      + 
  8.120e-08  1.20e+00 2      +      +      +      +     a+      +      +      + 
  8.140e-08  1.20e+00 2      +      +      +      +     a+      +      +      + 
  8.160e-08  1.20e+00 2      +      +      +      +     a+      +      +      + 
  8.180e-08  1.20e+00 2      +      +      +      +     a+      +      +      + 
  8.200e-08  1.20e+00-2------+------+------+------+-----a+------+------+------+-
  8.220e-08  1.20e+00 2      +      +      +      +     a+      +      +      + 
  8.240e-08  1.20e+00 2      +      +      +      +     a+      +      +      + 
  8.260e-08  1.20e+00 2      +      +      +      +     a+      +      +      + 
  8.280e-08  1.20e+00 2      +      +      +      +     a+      +      +      + 
  8.300e-08  1.20e+00 2      +      +      +      +     a+      +      +      + 
  8.320e-08  1.20e+00 2      +      +      +      +     a+      +      +      + 
  8.340e-08  1.20e+00 2      +      +      +      +     a+      +      +      + 
  8.360e-08  1.20e+00 2      +      +      +      +     a+      +      +      + 
  8.380e-08  1.20e+00 2      +      +      +      +     a+      +      +      + 
  8.400e-08  1.20e+00-2------+------+------+------+-----a+------+------+------+-
  8.420e-08  1.20e+00 2      +      +      +      +     a+      +      +      + 
  8.440e-08  1.20e+00 2      +      +      +      +     a+      +      +      + 
  8.460e-08  1.20e+00 2      +      +      +      +     a+      +      +      + 
  8.480e-08  1.20e+00 2      +      +      +      +     a+      +      +      + 
  8.500e-08  1.20e+00 2      +      +      +      +     a+      +      +      + 
  8.520e-08  1.20e+00 2      +      +      +      +     a+      +      +      + 
  8.540e-08  1.20e+00 2      +      +      +      +     a+      +      +      + 
  8.560e-08  1.20e+00 2      +      +      +      +     a+      +      +      + 
  8.580e-08  1.20e+00 2      +      +      +      +     a+      +      +      + 
  8.600e-08  1.20e+00-2------+------+------+------+-----a+------+------+------+-
  8.620e-08  1.20e+00 2      +      +      +      +     a+      +      +      + 
  8.640e-08  1.20e+00 2      +      +      +      +     a+      +      +      + 
  8.660e-08  1.20e+00 2      +      +      +      +     a+      +      +      + 
  8.680e-08  1.20e+00 2      +      +      +      +     a+      +      +      + 
  8.700e-08  1.20e+00 2      +      +      +      +     a+      +      +      + 
  8.720e-08  1.20e+00 2      +      +      +      +     a+      +      +      + 
  8.740e-08  1.20e+00 2      +      +      +      +     a+      +      +      + 
  8.760e-08  1.20e+00 2      +      +      +      +     a+      +      +      + 
  8.780e-08  1.20e+00 2      +      +      +      +     a+      +      +      + 
  8.800e-08  1.20e+00-2------+------+------+------+-----a+------+------+------+-
  8.820e-08  1.20e+00 2      +      +      +      +     a+      +      +      + 
  8.840e-08  1.20e+00 2      +      +      +      +     a+      +      +      + 
  8.860e-08  1.20e+00 2      +      +      +      +     a+      +      +      + 
  8.880e-08  1.20e+00 2      +      +      +      +     a+      +      +      + 
  8.900e-08  1.20e+00 2      +      +      +      +     a+      +      +      + 
  8.920e-08  1.20e+00 2      +      +      +      +     a+      +      +      + 
  8.940e-08  1.20e+00 2      +      +      +      +     a+      +      +      + 
  8.960e-08  1.20e+00 2      +      +      +      +     a+      +      +      + 
  8.980e-08  1.20e+00 2      +      +      +      +     a+      +      +      + 
  9.000e-08  1.20e+00-2------+------+------+------+-----a+------+------+------+-
                      +             +             +             +             + 

b


          ***** job concluded
1****** HSPICE -- J-2014.09-SP2-2 64-BIT (Apr 17 2015) win64 ******             
 ******  
 * ternary sram cell using gnrfets

 ****** job statistics summary tnom=  25.000 temp=  25.000 ******

  ******  HSPICE Threads Information  ******

  Command Line Threads Count :     1
  Available CPU Count        :     4
  Actual Threads Count       :     1


  ******  Circuit Statistics  ******
  # nodes       =      82 # elements   =     197
  # resistors   =      20 # capacitors =      80 # inductors   =       0
  # mutual_inds =       0 # vccs       =      30 # vcvs        =      55
  # cccs        =       0 # ccvs       =       0 # volt_srcs   =      12
  # curr_srcs   =       0 # diodes     =       0 # bjts        =       0
  # jfets       =       0 # mosfets    =       0 # U elements  =       0
  # T elements  =       0 # W elements =       0 # B elements  =       0
  # S elements  =       0 # P elements =       0 # va device   =       0
  # vector_srcs =       0 # N elements =       0


  ******  Runtime Statistics (seconds)  ******

  analysis           time    # points   tot. iter  conv.iter
  op point           0.11           1          36
  transient          1.12         451         221          59 rev=         3
  readin             0.17
  errchk             0.05
  setup              0.01
  output             0.00


           peak memory used         44.63 megabytes
           total cpu time            1.47 seconds
           total elapsed time        1.63 seconds
           job started at     14:45:57 10/18/2024
           job ended   at     14:45:58 10/18/2024


  lic: Release hspice token(s) 
 lic: total license checkout elapse time:        0.09(s)
