$DATA1 SOURCE='HSPICE' VERSION='J-2014.09-SP2-2 64-BIT'
.TITLE '* ternary sram cell using gnrfets'
 avgpower         temper           alter#          
  4.383e-005       2.500e+001      1               
