$DATA1 SOURCE='HSPICE' VERSION='J-2014.09-SP2-2 64-BIT'
.TITLE '* nand gate using gnrfet technology'
 avgpower         peakpower        temper           alter#          
  5.816e-007       8.996e-005       2.500e+001      1               
