 ****** HSPICE -- P-2019.06-SP1-1 win64 (Sep 27 2019) ******                    
  Copyright (c) 1986 - 2024 by Synopsys, Inc. All Rights Reserved.              
  This software and the associated documentation are proprietary
  to Synopsys, Inc. This software may only be used in accordance
  with the terms and conditions of a written license agreement with
  Synopsys, Inc. All other use, reproduction, or distribution of
  this software is strictly prohibited.
  Input File: or.sp                                                             
  Command line options: C:\synopsys\Hspice_P-2019.06-SP1-1\WIN64\hspice.com -i or.sp -o D:\MOS-GNRFET\OR\or.lis
  Start time: Sat Sep 28 21:10:05 2024
  lic:  
  lic: FLEXlm: SDK_12.3 
  lic: USER:   DELL                 HOSTNAME: DESKTOP-7ITPLTQ 
  lic: HOSTID: "18473d25e973"       PID:      10216 
  lic: Using FLEXlm license file: 
  lic: 27000@DESKTOP-7ITPLTQ 
  lic: Checkout 1 hspice 
  lic: License/Maintenance for hspice will expire on 30-dec-2030/2020.12 
  lic: 1(in_use)/99(total) FLOATING license(s) on SERVER 27000@DESKTOP-7ITPLTQ 
  lic:   
  **warning** (or.sp:43) .PLOT is obsolete and it is replaced by .PROBE.
  **error** (or.sp:34) Number of nodes mismatch between instance "xp3" and subcircuit "gnrfetpmos". Subcircuit definition has    4 node(s) whereas subckt instance has    3 node(s). Please specify same number of nodes.

          ***** job aborted
1****** HSPICE -- P-2019.06-SP1-1 win64 (Sep 27 2019) ******                    
 ******  
 // ternary or gate using gnrfet technology

 ****** job statistics summary tnom=  25.000 temp=  25.000 ******

  ******  HSPICE Threads Information  ******

  Command Line Threads Count :     1
  Available CPU Count        :     4
  Actual Threads Count       :     1


  ******  Circuit Statistics  ******
  # nodes       =       4 # elements   =      62
  # resistors   =       3 # capacitors =      26 # inductors   =       0
  # mutual_inds =       0 # vccs       =       9 # vcvs        =      18
  # cccs        =       0 # ccvs       =       0 # volt_srcs   =       6
  # curr_srcs   =       0 # diodes     =       0 # bjts        =       0
  # jfets       =       0 # mosfets    =       0 # U elements  =       0
  # T elements  =       0 # W elements =       0 # B elements  =       0
  # S elements  =       0 # P elements =       0 # va device   =       0
  # vector_srcs =       0 # N elements =       0


  ******  Runtime Statistics (seconds)  ******

  analysis           time    # points   tot. iter  conv.iter
  op point           0.00           1           0
  readin             0.07
  errchk             0.00
  setup              0.00
  output             0.00


           peak memory used         62.00 megabytes
           total cpu time            0.12 seconds
           total elapsed time        0.26 seconds
           job started at     21:10:05 09/28/2024
           job ended   at     21:10:05 09/28/2024
           job total runtime         0.26 seconds


  lic: Release hspice token(s) 
 lic: total license checkout elapse time:        0.13(s)
