***** HSPICE -- J-2014.09-SP2-2 64-BIT (Apr 17 2015) win64 ******
 Input File: hfwa9t.sp
 lic:
 lic: FLEXlm: v10.9.8
 lic: USER:   DELL                 HOSTNAME: DESKTOP-7ITPLTQ
 lic: HOSTID: "c03eba3298b7 18473d25e973 1a473d25e973 2a473d25e973" PID:      11628
