$DATA1 SOURCE='HSPICE' VERSION='J-2014.09-SP2-2 64-BIT'
.TITLE '* 9t ternary hfwa sram cell using gnrfets'
 avgpower         temper           alter#          
  4.392e-005       2.500e+001      1               
